<NUMBER OF ZONES> 12
<TOTAL OD FLOW> 20000.0
<END OF METADATA>


Origin 	12 
    10 :      5000.0;     11 :    5000.0; 

Origin 	1 
    10 :    2500.0;     11 :      2500.0; 

Origin 	2 
    10 :      2500.0;     11 :    2500.0; 
