<NUMBER OF ZONES> 12											
<NUMBER OF NODES> 4										
<FIRST THRU NODE> 1											
<NUMBER OF LINKS> 5										
<END OF METADATA>											


~ 	Init node 	Term node 	Capacity 	Length 	Free Flow Time 	B	Power	Speed limit 	Toll 	Type	;
	1	2	10000	4	10	20	4	0	0	1	;
	1	3	10000	6	10	2	4	0	0	1	;
	2	4	10000	7	10	2	4	0	0	1	;
	3	4	10000	1	20	20	4	0	0	1	;
