<NUMBER OF ZONES> 12
<TOTAL OD FLOW> 6.0
<END OF METADATA>


Origin 	1
    4 :      6.0;
